\begin{thebibliography}{}

\bibitem[Thompson and Thompson, 2017]{Thompson2017}
Thompson, M.~K. and Thompson, J.~M. (2017).
\newblock {\em {ANSYS Mechanical APDL for Finite Element Analysis}}.

\end{thebibliography}
